Version 4
SHEET 1 2532 1124
WIRE 368 656 256 656
WIRE 496 656 448 656
WIRE 800 656 752 656
WIRE 912 656 864 656
WIRE 912 688 912 656
WIRE 144 720 64 720
WIRE 240 720 224 720
WIRE 256 720 256 656
WIRE 256 720 240 720
WIRE 272 720 256 720
WIRE 432 720 352 720
WIRE 464 720 432 720
WIRE 496 720 464 720
WIRE 928 720 752 720
WIRE 1168 720 928 720
WIRE 1312 720 1168 720
WIRE 1424 720 1312 720
WIRE -160 736 -160 672
WIRE 1168 768 1168 720
WIRE 800 784 752 784
WIRE 928 784 928 720
WIRE 928 784 880 784
WIRE 1312 784 1312 720
WIRE 240 800 240 720
WIRE 432 816 432 720
WIRE 432 816 352 816
WIRE 432 848 432 816
WIRE 496 848 432 848
WIRE 800 848 752 848
WIRE -160 880 -160 816
WIRE 1168 880 1168 832
WIRE 240 896 240 864
WIRE 800 896 800 848
WIRE 1312 912 1312 864
WIRE 352 928 352 816
WIRE 432 928 432 848
WIRE 640 992 624 992
WIRE 816 992 720 992
WIRE 352 1024 352 992
WIRE 432 1024 432 992
WIRE 720 1088 720 1056
FLAG -160 672 VIN
FLAG -160 880 0
FLAG 800 896 0
FLAG 64 720 VIN
FLAG 912 688 0
FLAG 1168 880 0
FLAG 1312 912 0
FLAG 1424 720 Vout
FLAG 240 896 0
FLAG 432 1024 0
FLAG 352 1024 0
FLAG 464 720 vcc
FLAG 496 784 shdn
FLAG 720 1088 0
FLAG 624 992 vcc
FLAG 816 992 shdn
SYMBOL voltage -160 720 R0
WINDOW 123 0 0 Left 0
WINDOW 39 0 0 Left 0
SYMATTR InstName V1
SYMATTR Value PWL(0 0 .5m {VIN})
SYMBOL PowerProducts\\LT3494 624 752 R0
SYMATTR InstName U2
SYMBOL ind 352 672 R270
WINDOW 0 32 56 VTop 2
WINDOW 3 5 56 VBottom 2
SYMATTR InstName L2
SYMATTR Value 10µ
SYMBOL cap 864 640 R90
WINDOW 0 0 32 VBottom 2
WINDOW 3 32 32 VTop 2
SYMATTR InstName C6
SYMATTR Value 220n
SYMBOL cap 1152 768 R0
SYMATTR InstName C7
SYMATTR Value 2.2µ
SYMBOL res 896 768 R90
WINDOW 0 0 56 VBottom 2
WINDOW 3 32 56 VTop 2
SYMATTR InstName R6
SYMATTR Value 1.2Meg
SYMBOL res 1296 768 R0
SYMATTR InstName R1
SYMATTR Value 15k
SYMBOL cap 224 800 R0
SYMATTR InstName C1
SYMATTR Value 47µ
SYMBOL res 368 704 R90
WINDOW 0 0 56 VBottom 2
WINDOW 3 32 56 VTop 2
SYMATTR InstName R5
SYMATTR Value 220
SYMBOL zener 416 992 M180
WINDOW 0 24 64 Left 2
WINDOW 3 24 0 Left 2
SYMATTR InstName D2
SYMATTR Value BZX84C15L
SYMATTR Description Diode
SYMATTR Type diode
SYMBOL cap 336 928 R0
SYMATTR InstName C2
SYMATTR Value 1µ
SYMBOL res 240 704 R90
WINDOW 0 0 56 VBottom 2
WINDOW 3 32 56 VTop 2
SYMATTR InstName R7
SYMATTR Value 2
SYMBOL cap 704 992 R0
SYMATTR InstName C5
SYMATTR Value 1µ
SYMBOL res 736 976 R90
WINDOW 0 0 56 VBottom 2
WINDOW 3 32 56 VTop 2
SYMATTR InstName R8
SYMATTR Value 1k
TEXT -192 1032 Left 2 !.tran 10m startup uic
TEXT -192 1056 Left 2 !.step param VIN list 3 5 6
